66
6.6685278850 0.2029651404 0.1042760937  -1.754405591 7.5748334900 0.1265068803  -2.681886360 -0.814449634 11.821611190  cell vectors unit cell
H        2.332606840   3.315103867   5.461712761
H        3.062744252   2.508069770   6.860869045
H        1.830858160   6.178544410   5.531493675
H        1.086517286   6.926582893   6.953408872
H        2.380875042   3.174661259   9.034938960
H        0.804352647   3.969293260   9.282700941
H       -0.226061946   5.024350194   7.405159465
H        0.176446376   4.509459135   5.756401379
H        1.761458408   6.139329615   9.116664663
H       -3.332307663   5.121140799   9.215319984
H       -2.294311141   4.178161423   7.293848466
H        3.974331348   4.983129454   5.777578379
H       -1.731822111   3.495033430  11.092711256
H        1.063669016   3.973688452   1.738261432
H       -3.680128322   6.821050030  10.630548778
H       -0.881340041   6.093677345   0.749066858
H       -0.788995583   5.755008824   3.218922178
H        1.167802293   2.427823486   3.690904188
H        4.629143043   4.040013966   3.570567369
H        4.283372361   4.090144003   1.098387914
H        2.807832596   7.321983294   3.643409667
H        2.561478375   6.100741201   1.487741143
H       -0.453877918   5.337910496  10.836582343
H        1.366168216   2.056300796  10.768531206
C        0.928390818   0.168247165   5.010863464
C        4.971196215   1.790347842   5.129035688
C        0.964944150   0.021069461   9.151789738
C        2.420293795   5.361045052   8.717085652
C        3.549762085   4.643398373   6.726434398
C        1.720353363   3.972300376   8.679296728
C        0.599871560   4.797092750   6.722702220
C        4.603484283   1.877497915   3.683224367
C        2.601821836   3.439542258   6.515605352
C        1.550166784   6.008849083   6.575953822
C        4.524750715   3.117044457   2.998599437
C        4.347657232   3.141159753   1.633972294
C        4.269193259   1.934586324   0.886447342
C        4.331715629   0.681581383   1.575805063
C        4.484001849   0.690541697   2.978129133
C        2.499454324   7.050505569   0.953199556
C       -0.353471872   6.260758486  11.409253570
C        1.327379992  -0.074197423  10.597790235
C        1.440766234   1.112161159  11.305376159
C       -1.710725407   1.493461962   9.171413409
C       -1.853408260   1.375603402  10.653939984
C       -1.758397204   2.493288111  11.523140154
C        1.000286741   3.118557268   1.062714885
C        1.022453904   1.810360359   1.619917879
C        0.916896070   0.681431214   0.747406271
C       -1.878057928   0.094294459  11.182424349
C       -0.818219062   6.946854329   1.426964270
C       -0.752703471   6.756141459   2.787865966
C        1.090508016   0.297806599   3.531591126
C        1.126587220   1.581157718   3.007503270
N        2.803801147   5.768826800   7.339814816
N        1.342585377   3.640458793   7.280056517
O        1.264940594   1.112492426   8.575536219
O       -1.460797708   6.650877139   8.738957973
O        4.685696154   0.695223587   5.705725018
O       -1.099763551   2.506989632   8.686323454
O       -2.095794926   0.492094641   8.486784384
O        1.290959434   1.173547994   5.700222629
O       -1.417763053   6.720109117   5.615600477
O       -1.051354960   2.543361524   5.566801566
Ni     -0.916933234  -0.299700491   7.073780067
Ni      0.153110508   1.933986776   7.145503256
