114
-10.4891999990 0.0000000000 10.4891999990  0.0000000000 10.4891999990 10.4891999990  -10.4891999990 10.4891999990 0.0000000000  cell vectors primitive cell
  H    -10.6245106790     5.8739520000     7.6455778800
  H    -10.3538893190    15.1044479990     7.6455778800
  H    -10.6245106790    15.1044479990    13.3328221190
  H    -10.3538893190     5.8739520000    13.3328221190
  H    -13.3328221190    10.3538893190     5.8739520000
  H    -15.1044479990     7.6455778800    10.3538893190
  H     -7.6455778800    10.6245106790     5.8739520000
  H     -5.8739520000     7.6455778800    10.6245106790
  H    -13.3328221190    10.6245106790    15.1044479990
  H     -5.8739520000    13.3328221190    10.3538893190
  H     -7.6455778800    10.3538893190    15.1044479990
  H    -15.1044479990    13.3328221190    10.6245106790
  H    -15.1044479990    10.3538893190     7.6455778800
  H     -5.8739520000    10.6245106790     7.6455778800
  H     -5.8739520000    10.3538893190    13.3328221190
  H    -15.1044479990    10.6245106790    13.3328221190
  H    -10.6245106790     7.6455778800     5.8739520000
  H    -13.3328221190     5.8739520000    10.3538893190
  H    -10.3538893190    13.3328221190     5.8739520000
  H    -13.3328221190    15.1044479990    10.6245106790
  H    -10.3538893190     7.6455778800    15.1044479990
  H     -7.6455778800    15.1044479990    10.3538893190
  H    -10.6245106790    13.3328221190    15.1044479990
  H     -7.6455778800     5.8739520000    10.6245106790
  H     -8.5220554310     8.5220554310     1.9671445680
  H     -1.9671445680     8.5220554310     8.5220554310
  H     -1.9671445680     1.9671445680     1.9671445680
  H     -8.5220554310     1.9671445680     8.5220554310
  C    -20.8923885590    13.6852592390    13.6852592390
  C    -10.6255595990     5.6106730800     6.5945600400
  C    -10.3528403990    15.3677269190     6.5945600400
  C    -10.6255595990    15.3677269190    14.3838399590
  C    -10.3528403990     5.6106730800    14.3838399590
  C    -14.3838399590    10.3528403990     5.6106730800
  C    -15.3677269190     6.5945600400    10.3528403990
  C     -6.5945600400    10.6255595990     5.6106730800
  C     -5.6106730800     6.5945600400    10.6255595990
  C    -14.3838399590    10.6255595990    15.3677269190
  C     -5.6106730800    14.3838399590    10.3528403990
  C     -6.5945600400    10.3528403990    15.3677269190
  C    -15.3677269190    14.3838399590    10.6255595990
  C    -15.3677269190    10.3528403990     6.5945600400
  C     -5.6106730800    10.6255595990     6.5945600400
  C     -5.6106730800    10.3528403990    14.3838399590
  C    -15.3677269190    10.6255595990    14.3838399590
  C    -10.6255595990     6.5945600400     5.6106730800
  C    -14.3838399590     5.6106730800    10.3528403990
  C    -10.3528403990    14.3838399590     5.6106730800
  C    -14.3838399590    15.3677269190    10.6255595990
  C    -10.3528403990     6.5945600400    15.3677269190
  C     -6.5945600400    15.3677269190    10.3528403990
  C    -10.6255595990    14.3838399590    15.3677269190
  C     -6.5945600400     5.6106730800    10.6255595990
  C    -10.5752114390    17.7823407590    13.6852592390
  C    -20.8923885590    17.7823407590    17.7823407590
  C    -10.5752114390    13.6852592390    17.7823407590
  C    -17.7823407590    10.5752114390    13.6852592390
  C    -17.7823407590    13.6852592390    10.5752114390
  C    -13.6852592390    20.8923885590    13.6852592390
  C    -13.6852592390    13.6852592390    20.8923885590
  C    -17.7823407590    20.8923885590    17.7823407590
  C    -13.6852592390    17.7823407590    10.5752114390
  C    -13.6852592390    10.5752114390    17.7823407590
  C    -17.7823407590    17.7823407590    20.8923885590
  C    -16.7229315590    20.8483339190    16.7229315590
  C    -14.7446684390    10.6192660790    16.7229315590
  C    -14.7446684390    20.8483339190    14.7446684390
  C    -16.7229315590    10.6192660790    14.7446684390
  C    -10.6192660790    16.7229315590    14.7446684390
  C    -14.7446684390    14.7446684390    20.8483339190
  C    -20.8483339190    14.7446684390    14.7446684390
  C    -14.7446684390    16.7229315590    10.6192660790
  C    -20.8483339190    16.7229315590    16.7229315590
  C    -16.7229315590    16.7229315590    20.8483339190
  C    -10.6192660790    14.7446684390    16.7229315590
  C    -16.7229315590    14.7446684390    10.6192660790
  O     -1.4112169680     1.4112169680     1.4112169680
  O    -10.5437438390     3.5820618000     8.5056922790
  O    -10.4346561590    17.3963381990     8.5056922790
  O    -10.5437438390    17.3963381990    12.4727077190
  O    -10.4346561590     3.5820618000    12.4727077190
  O    -12.4727077190    10.4346561590     3.5820618000
  O    -17.3963381990     8.5056922790    10.4346561590
  O     -8.5056922790    10.5437438390     3.5820618000
  O     -3.5820618000     8.5056922790    10.5437438390
  O    -12.4727077190    10.5437438390    17.3963381990
  O     -3.5820618000    12.4727077190    10.4346561590
  O     -8.5056922790    10.4346561590    17.3963381990
  O    -17.3963381990    12.4727077190    10.5437438390
  O    -17.3963381990    10.4346561590     8.5056922790
  O     -3.5820618000    10.5437438390     8.5056922790
  O     -3.5820618000    10.4346561590    12.4727077190
  O    -17.3963381990    10.5437438390    12.4727077190
  O    -10.5437438390     8.5056922790     3.5820618000
  O    -12.4727077190     3.5820618000    10.4346561590
  O    -10.4346561590    12.4727077190     3.5820618000
  O    -12.4727077190    17.3963381990    10.5437438390
  O    -10.4346561590     8.5056922790    17.3963381990
  O     -8.5056922790    17.3963381990    10.4346561590
  O    -10.5437438390    12.4727077190    17.3963381990
  O     -8.5056922790     3.5820618000    10.5437438390
  O     -9.0779830310     9.0779830310     1.4112169680
  O     -1.4112169680     9.0779830310     9.0779830310
  O     -9.0779830310     1.4112169680     9.0779830310
  O    -19.9414376870    19.9414376870    19.9414376870
  O    -11.5261623110    19.9414376870    11.5261623110
  O    -19.9414376870    11.5261623110    11.5261623110
  O    -11.5261623110    11.5261623110    19.9414376870
 Zr    -10.4891999990     2.5257993600    10.4891999990
 Zr    -10.4891999990    18.4526006390    10.4891999990
 Zr    -10.4891999990    10.4891999990     2.5257993600
 Zr    -18.4526006390    10.4891999990    10.4891999990
 Zr     -2.5257993600    10.4891999990    10.4891999990
 Zr    -10.4891999990    10.4891999990    18.4526006390
