174
-13.5471000020 0.0000000000 13.5471000020  0.0000000000 13.5471000020 13.5471000020  -13.5471000020 13.5471000020 0.0000000000  cell vectors primitive cell
  H    -18.2105537070    13.1469186680    19.5045726990
  H    -16.4502435330    13.1474605520    21.2445622230
  H    -18.1924005930     7.5497988310    12.7125986420
  H    -16.4461794030     5.7954493810    12.8155566020
  H    -10.6480206020    21.2987506230    12.8155566020
  H    -16.4461794030    21.2987506230    14.2786434020
  H    -10.6480206020     5.7954493810    14.2786434020
  H    -14.2786434020    10.6480206020     5.7954493810
  H    -21.2987506230    12.8155566020    10.6480206020
  H    -12.8155566020    16.4461794030     5.7954493810
  H     -5.7954493810    12.8155566020    16.4461794030
  H    -14.2786434020    16.4461794030    21.2987506230
  H     -5.7954493810    14.2786434020    10.6480206020
  H    -12.8155566020    10.6480206020    21.2987506230
  H    -21.2987506230    14.2786434020    16.4461794030
  H     -8.9017994110    19.5444011730    12.7125986420
  H    -18.1924005930    19.5444011730    14.3816013620
  H     -8.9017994110     7.5497988310    14.3816013620
  H    -14.3816013620     8.9017994110     7.5497988310
  H    -19.5444011730    12.7125986420     8.9017994110
  H    -12.7125986420    18.1924005930     7.5497988310
  H     -7.5497988310    12.7125986420    18.1924005930
  H    -14.3816013620    18.1924005930    19.5444011730
  H     -7.5497988310    14.3816013620     8.9017994110
  H    -12.7125986420     8.9017994110    19.5444011730
  H    -19.5444011730    14.3816013620    18.1924005930
  H    -10.6439564720    13.9467394520    21.2445622230
  H    -16.4502435330    13.9467394520     5.8496377810
  H    -10.6439564720    13.1474605520     5.8496377810
  H     -5.8496377810    10.6439564720    13.1474605520
  H    -13.9467394520    21.2445622230    10.6439564720
  H    -21.2445622230    16.4502435330    13.1474605520
  H    -13.1474605520    21.2445622230    16.4502435330
  H     -5.8496377810    16.4502435330    13.9467394520
  H    -13.1474605520     5.8496377810    10.6439564720
  H    -21.2445622230    10.6439564720    13.9467394520
  H    -13.9467394520     5.8496377810    16.4502435330
  H     -8.8836462970    13.9472813360    19.5045726990
  H    -18.2105537070    13.9472813360     7.5896273050
  H     -8.8836462970    13.1469186680     7.5896273050
  H     -7.5896273050     8.8836462970    13.1469186680
  H    -13.9472813360    19.5045726990     8.8836462970
  H    -19.5045726990    18.2105537070    13.1469186680
  H    -13.1469186680    19.5045726990    18.2105537070
  H     -7.5896273050    18.2105537070    13.9472813360
  H    -13.1469186680     7.5896273050     8.8836462970
  H    -19.5045726990     8.8836462970    13.9472813360
  H    -13.9472813360     7.5896273050    18.2105537070
  H    -11.5800610820    11.5800610820     1.9670389200
  H     -1.9670389200    11.5800610820    11.5800610820
  H     -1.9670389200     1.9670389200     1.9670389200
  H    -11.5800610820     1.9670389200    11.5800610820
  C    -18.4625297670    13.4270726960    20.5216889670
  C    -17.4716948730    13.4116290020    21.4978929930
  C    -19.7998994790    19.7917712190    26.8779882880
  C    -17.8103723730    17.7873423030    26.9356989340
  C    -16.7531566890    16.7314813290    27.0012668980
  C    -18.4611750570     6.5410817650    13.0128023780
  C    -17.4779265390     5.5591879570    13.0547983880
  C     -9.6162734660    21.5350120480    13.0547983880
  C    -17.4779265390    21.5350120480    14.0394016160
  C     -9.6162734660     5.5591879570    14.0394016160
  C    -14.0394016160     9.6162734660     5.5591879570
  C    -21.5350120480    13.0547983880     9.6162734660
  C    -13.0547983880    17.4779265390     5.5591879570
  C     -5.5591879570    13.0547983880    17.4779265390
  C    -14.0394016160    17.4779265390    21.5350120480
  C     -5.5591879570    14.0394016160     9.6162734660
  C    -13.0547983880     9.6162734660    21.5350120480
  C    -21.5350120480    14.0394016160    17.4779265390
  C     -8.6330249470    20.5531182390    13.0128023780
  C    -18.4611750570    20.5531182390    14.0813976260
  C     -8.6330249470     6.5410817650    14.0813976260
  C    -14.0813976260     8.6330249470     6.5410817650
  C    -20.5531182390    13.0128023780     8.6330249470
  C    -13.0128023780    18.4611750570     6.5410817650
  C     -6.5410817650    13.0128023780    18.4611750570
  C    -14.0813976260    18.4611750570    20.5531182390
  C     -6.5410817650    14.0813976260     8.6330249470
  C    -13.0128023780     8.6330249470    20.5531182390
  C    -20.5531182390    14.0813976260    18.4611750570
  C    -23.8881433180    23.9098186780    27.0012668980
  C    -16.7531566890    23.9098186780    13.6400331080
  C    -23.8881433180    16.7314813290    13.6400331080
  C    -13.6400331080    23.8881433180    16.7314813290
  C    -23.9098186780    27.0012668980    23.8881433180
  C    -27.0012668980    16.7531566890    16.7314813290
  C    -16.7314813290    27.0012668980    16.7531566890
  C    -13.6400331080    16.7531566890    23.9098186780
  C    -16.7314813290    13.6400331080    23.8881433180
  C    -27.0012668980    23.8881433180    23.9098186780
  C    -23.9098186780    13.6400331080    16.7531566890
  C    -22.8309276340    22.8539577040    26.9356989340
  C    -17.8103723730    22.8539577040    13.7056010720
  C    -22.8309276340    17.7873423030    13.7056010720
  C    -13.7056010720    22.8309276340    17.7873423030
  C    -22.8539577040    26.9356989340    22.8309276340
  C    -26.9356989340    17.8103723730    17.7873423030
  C    -17.7873423030    26.9356989340    17.8103723730
  C    -13.7056010720    17.8103723730    22.8539577040
  C    -17.7873423030    13.7056010720    22.8309276340
  C    -26.9356989340    22.8309276340    22.8539577040
  C    -22.8539577040    13.7056010720    17.8103723730
  C    -20.8414005270    20.8495287870    26.8779882880
  C    -19.7998994790    20.8495287870    13.7633117180
  C    -20.8414005270    19.7917712190    13.7633117180
  C    -13.7633117180    20.8414005270    19.7917712190
  C    -20.8495287870    26.8779882880    20.8414005270
  C    -26.8779882880    19.7998994790    19.7917712190
  C    -19.7917712190    26.8779882880    19.7998994790
  C    -13.7633117180    19.7998994790    20.8495287870
  C    -19.7917712190    13.7633117180    20.8414005270
  C    -26.8779882880    20.8414005270    20.8495287870
  C    -20.8495287870    13.7633117180    19.7998994790
  C     -9.6225051320    13.6825710020    21.4978929930
  C    -17.4716948730    13.6825710020     5.5963070110
  C     -9.6225051320    13.4116290020     5.5963070110
  C     -5.5963070110     9.6225051320    13.4116290020
  C    -13.6825710020    21.4978929930     9.6225051320
  C    -21.4978929930    17.4716948730    13.4116290020
  C    -13.4116290020    21.4978929930    17.4716948730
  C     -5.5963070110    17.4716948730    13.6825710020
  C    -13.4116290020     5.5963070110     9.6225051320
  C    -21.4978929930     9.6225051320    13.6825710020
  C    -13.6825710020     5.5963070110    17.4716948730
  C     -8.6316702370    13.6671273080    20.5216889670
  C    -18.4625297670    13.6671273080     6.5725110370
  C     -8.6316702370    13.4270726960     6.5725110370
  C     -6.5725110370     8.6316702370    13.4270726960
  C    -13.6671273080    20.5216889670     8.6316702370
  C    -20.5216889670    18.4625297670    13.4270726960
  C    -13.4270726960    20.5216889670    18.4625297670
  C     -6.5725110370    18.4625297670    13.6671273080
  C    -13.4270726960     6.5725110370     8.6316702370
  C    -20.5216889670     8.6316702370    13.6671273080
  C    -13.6671273080     6.5725110370    18.4625297670
  O    -26.0570340280    26.0570340280    26.0570340280
  O     -1.4107949940     1.4107949940     1.4107949940
  O    -15.5209124720    13.5592923920    23.5015090840
  O    -15.5404202970     3.5691189670    13.4476642880
  O    -11.5537797080    23.5250810380    13.4476642880
  O    -15.5404202970    23.5250810380    13.6465357160
  O    -11.5537797080     3.5691189670    13.6465357160
  O    -13.6465357160    11.5537797080     3.5691189670
  O    -23.5250810380    13.4476642880    11.5537797080
  O    -13.4476642880    15.5404202970     3.5691189670
  O     -3.5691189670    13.4476642880    15.5404202970
  O    -13.6465357160    15.5404202970    23.5250810380
  O     -3.5691189670    13.6465357160    11.5537797080
  O    -13.4476642880    11.5537797080    23.5250810380
  O    -23.5250810380    13.6465357160    15.5404202970
  O    -11.5732875320    13.5349076120    23.5015090840
  O    -15.5209124720    13.5349076120     3.5926909210
  O    -11.5732875320    13.5592923920     3.5926909210
  O     -3.5926909210    11.5732875320    13.5592923920
  O    -13.5349076120    23.5015090840    11.5732875320
  O    -23.5015090840    15.5209124720    13.5592923920
  O    -13.5592923920    23.5015090840    15.5209124720
  O     -3.5926909210    15.5209124720    13.5349076120
  O    -13.5592923920     3.5926909210    11.5732875320
  O    -23.5015090840    11.5732875320    13.5349076120
  O    -13.5349076120     3.5926909210    15.5209124720
  O    -12.1363050080    12.1363050080     1.4107949940
  O     -1.4107949940    12.1363050080    12.1363050080
  O    -12.1363050080     1.4107949940    12.1363050080
  O    -14.5842659780    14.5842659780    26.0570340280
  O    -26.0570340280    14.5842659780    14.5842659780
  O    -14.5842659780    26.0570340280    14.5842659780
 Zr    -13.5471000020    13.5471000020     2.5251794400
 Zr    -13.5471000020    13.5471000020    24.5690205640
 Zr    -24.5690205640    13.5471000020    13.5471000020
 Zr    -13.5471000020     2.5251794400    13.5471000020
 Zr     -2.5251794400    13.5471000020    13.5471000020
 Zr    -13.5471000020    24.5690205640    13.5471000020
