510 
39.267900000 0.000000000 0.000000000 -19.633950000 34.006998953 0.000000000 0.000000000 0.000000000 16.566600000 
C 17.498561598 3.183735242 2.211641100
C 2.135388402 30.823263711 2.211641100
C 27.761423602 13.562331253 2.211641100
C 13.641864800 17.260932459 2.211641100
C 5.992085201 16.746066495 2.211641100
C -8.127473602 20.444667701 2.211641100
C -2.135388402 30.823263711 14.354958900
C 8.127473603 20.444667701 14.354958900
C -5.992085200 16.746066495 14.354958900
C 25.626035200 17.260932459 14.354958900
C 11.506476398 13.562331253 14.354958900
C 21.769338402 3.183735242 14.354958900
C 2.135388402 30.823263711 14.354958900
C 17.498561598 3.183735242 14.354958900
C -8.127473602 20.444667701 14.354958900
C 5.992085201 16.746066495 14.354958900
C 13.641864800 17.260932459 14.354958900
C 27.761423602 13.562331253 14.354958900
C 21.769338402 3.183735242 2.211641100
C 11.506476398 13.562331253 2.211641100
C 25.626035200 17.260932459 2.211641100
C -5.992085200 16.746066495 2.211641100
C 8.127473603 20.444667701 2.211641100
C -2.135388402 30.823263711 2.211641100
C 16.860850902 4.263117389 3.043284420
C 2.773099098 29.743881564 3.043284420
C 27.145506591 12.470366516 3.043284420
C 14.895492507 17.273515048 3.043284420
C 4.738457493 16.733483905 3.043284420
C -7.511556591 21.536632437 3.043284420
C -2.773099098 29.743881564 13.523315580
C 7.511556591 21.536632437 13.523315580
C -4.738457493 16.733483905 13.523315580
C 24.372407493 17.273515048 13.523315580
C 12.122393409 12.470366516 13.523315580
C 22.407049098 4.263117389 13.523315580
C 2.773099098 29.743881564 13.523315580
C 16.860850902 4.263117389 13.523315580
C -7.511556591 21.536632437 13.523315580
C 4.738457493 16.733483905 13.523315580
C 14.895492507 17.273515048 13.523315580
C 27.145506591 12.470366516 13.523315580
C 22.407049098 4.263117389 3.043284420
C 12.122393409 12.470366516 3.043284420
C 24.372407493 17.273515048 3.043284420
C -4.738457493 16.733483905 3.043284420
C 7.511556591 21.536632437 3.043284420
C -2.773099098 29.743881564 3.043284420
C 15.891130111 3.932229289 3.980953980
C 3.742819889 30.074769664 3.980953980
C 27.916924487 11.796007727 3.980953980
C 15.093795402 18.278761937 3.980953980
C 4.540154598 15.728237016 3.980953980
C -8.282974486 22.210991226 3.980953980
C -3.742819888 30.074769664 12.585646020
C 8.282974487 22.210991226 12.585646020
C -4.540154598 15.728237016 12.585646020
C 24.174104598 18.278761937 12.585646020
C 11.350975514 11.796007727 12.585646020
C 23.376769888 3.932229289 12.585646020
C 3.742819889 30.074769664 12.585646020
C 15.891130111 3.932229289 12.585646020
C -8.282974486 22.210991226 12.585646020
C 4.540154598 15.728237016 12.585646020
C 15.093795402 18.278761937 12.585646020
C 27.916924487 11.796007727 12.585646020
C 23.376769888 3.932229289 3.980953980
C 11.350975514 11.796007727 3.980953980
C 24.174104598 18.278761937 3.980953980
C -4.540154598 15.728237016 3.980953980
C 8.282974487 22.210991226 3.980953980
C -3.742819888 30.074769664 3.980953980
H 15.614919703 3.049407596 4.079674349
H 4.019030297 30.957591357 4.079674349
H 28.819575704 11.998213343 4.079674349
H 14.467354593 18.959378014 4.079674349
H 5.166595407 15.047620939 4.079674349
H -9.185625704 22.008785611 4.079674349
H -4.019030297 30.957591357 12.486925651
H 9.185625704 22.008785611 12.486925651
H -5.166595407 15.047620939 12.486925651
H 24.800545407 18.959378014 12.486925651
H 10.448324296 11.998213343 12.486925651
H 23.652980297 3.049407596 12.486925651
H 4.019030297 30.957591357 12.486925651
H 15.614919703 3.049407596 12.486925651
H -9.185625704 22.008785611 12.486925651
H 5.166595407 15.047620939 12.486925651
H 14.467354593 18.959378014 12.486925651
H 28.819575704 11.998213343 12.486925651
H 23.652980297 3.049407596 4.079674349
H 10.448324296 11.998213343 4.079674349
H 24.800545407 18.959378014 4.079674349
H -5.166595407 15.047620939 4.079674349
H 9.185625704 22.008785611 4.079674349
H -4.019030297 30.957591357 4.079674349
C 15.332936913 4.933055268 4.774494120
C 4.301013087 29.073943685 4.774494120
C 27.329280363 10.812185247 4.774494120
C 16.239632724 18.261758438 4.774494120
C 3.394317276 15.745240515 4.774494120
C -7.695330363 23.194813706 4.774494120
C -4.301013087 29.073943685 11.792105880
C 7.695330363 23.194813706 11.792105880
C -3.394317276 15.745240515 11.792105880
C 23.028267276 18.261758438 11.792105880
C 11.938619637 10.812185247 11.792105880
C 23.934963087 4.933055268 11.792105880
C 4.301013087 29.073943685 11.792105880
C 15.332936913 4.933055268 11.792105880
C -7.695330363 23.194813706 11.792105880
C 3.394317276 15.745240515 11.792105880
C 16.239632724 18.261758438 11.792105880
C 27.329280363 10.812185247 11.792105880
C 23.934963087 4.933055268 4.774494120
C 11.938619637 10.812185247 4.774494120
C 23.028267276 18.261758438 4.774494120
C -3.394317276 15.745240515 4.774494120
C 7.695330363 23.194813706 4.774494120
C -4.301013087 29.073943685 4.774494120
H 14.687529709 4.707520851 5.404836683
H 4.946420291 29.299478102 5.404836683
H 27.847302500 10.366013421 5.404836683
H 16.367017792 18.933464681 5.404836683
H 3.266932208 15.073534272 5.404836683
H -8.213352500 23.640985532 5.404836683
H -4.946420291 29.299478102 11.161763317
H 8.213352500 23.640985532 11.161763317
H -3.266932208 15.073534272 11.161763317
H 22.900882208 18.933464681 11.161763317
H 11.420597500 10.366013421 11.161763317
H 24.580370291 4.707520851 11.161763317
H 4.946420291 29.299478102 11.161763317
H 14.687529709 4.707520851 11.161763317
H -8.213352500 23.640985532 11.161763317
H 3.266932208 15.073534272 11.161763317
H 16.367017792 18.933464681 11.161763317
H 27.847302500 10.366013421 11.161763317
H 24.580370291 4.707520851 5.404836683
H 11.420597500 10.366013421 5.404836683
H 22.900882208 18.933464681 5.404836683
H -3.266932208 15.073534272 5.404836683
H 8.213352500 23.640985532 5.404836683
H -4.946420291 29.299478102 5.404836683
C 15.714817241 6.244025078 4.641961320
C 3.919132760 27.762973875 4.641961320
C 26.003007040 10.487418407 4.641961320
C 17.184025719 17.275555468 4.641961320
C 2.449924281 16.731443485 4.641961320
C -6.369057040 23.519580546 4.641961320
C -3.919132759 27.762973875 11.924638680
C 6.369057041 23.519580546 11.924638680
C -2.449924281 16.731443485 11.924638680
C 22.083874281 17.275555468 11.924638680
C 13.264892960 10.487418407 11.924638680
C 23.553082760 6.244025078 11.924638680
C 3.919132760 27.762973875 11.924638680
C 15.714817241 6.244025078 11.924638680
C -6.369057040 23.519580546 11.924638680
C 2.449924281 16.731443485 11.924638680
C 17.184025719 17.275555468 11.924638680
C 26.003007040 10.487418407 11.924638680
C 23.553082760 6.244025078 4.641961320
C 13.264892960 10.487418407 4.641961320
C 22.083874281 17.275555468 4.641961320
C -2.449924281 16.731443485 4.641961320
C 6.369057041 23.519580546 4.641961320
C -3.919132759 27.762973875 4.641961320
C 16.666671136 6.560970308 3.694351800
C 2.967278864 27.446028645 3.694351800
C 25.252597471 11.153275447 3.694351800
C 16.982581392 16.292753199 3.694351800
C 2.651368608 17.714245755 3.694351800
C -5.618647471 22.853723507 3.694351800
C -2.967278863 27.446028645 12.872248200
C 5.618647472 22.853723507 12.872248200
C -2.651368608 17.714245755 12.872248200
C 22.285318608 16.292753199 12.872248200
C 14.015302529 11.153275447 12.872248200
C 22.601228864 6.560970308 12.872248200
C 2.967278864 27.446028645 12.872248200
C 16.666671136 6.560970308 12.872248200
C -5.618647471 22.853723507 12.872248200
C 2.651368608 17.714245755 12.872248200
C 16.982581392 16.292753199 12.872248200
C 25.252597471 11.153275447 12.872248200
C 22.601228864 6.560970308 3.694351800
C 14.015302529 11.153275447 3.694351800
C 22.285318608 16.292753199 3.694351800
C -2.651368608 17.714245755 3.694351800
C 5.618647472 22.853723507 3.694351800
C -2.967278863 27.446028645 3.694351800
H 16.925250258 7.446852631 3.581152222
H 2.708699742 26.560146322 3.581152222
H 24.356111314 10.934270373 3.581152222
H 17.620488428 15.625875949 3.581152222
H 2.013461573 18.381123004 3.581152222
H -4.722161314 23.072728580 3.581152222
H -2.708699742 26.560146322 12.985447778
H 4.722161315 23.072728580 12.985447778
H -2.013461572 18.381123004 12.985447778
H 21.647411573 15.625875949 12.985447778
H 14.911788686 10.934270373 12.985447778
H 22.342649742 7.446852631 12.985447778
H 2.708699742 26.560146322 12.985447778
H 16.925250258 7.446852631 12.985447778
H -4.722161314 23.072728580 12.985447778
H 2.013461573 18.381123004 12.985447778
H 17.620488428 15.625875949 12.985447778
H 24.356111314 10.934270373 12.985447778
H 22.342649742 7.446852631 3.581152222
H 14.911788686 10.934270373 3.581152222
H 21.647411573 15.625875949 3.581152222
H -2.013461572 18.381123004 3.581152222
H 4.722161315 23.072728580 3.581152222
H -2.708699742 26.560146322 3.581152222
C 17.242534890 5.570346429 2.904124980
C 2.391415110 28.436652525 2.904124980
C 25.822571040 12.147300026 2.904124980
C 15.836744070 16.289352499 2.904124980
C 3.797205930 17.717646455 2.904124980
C -6.188621040 21.859698927 2.904124980
C -2.391415110 28.436652525 13.662475020
C 6.188621040 21.859698927 13.662475020
C -3.797205930 17.717646455 13.662475020
C 23.431155930 16.289352499 13.662475020
C 13.445328960 12.147300026 13.662475020
C 22.025365110 5.570346429 13.662475020
C 2.391415110 28.436652525 13.662475020
C 17.242534890 5.570346429 13.662475020
C -6.188621040 21.859698927 13.662475020
C 3.797205930 17.717646455 13.662475020
C 15.836744070 16.289352499 13.662475020
C 25.822571040 12.147300026 13.662475020
C 22.025365110 5.570346429 2.904124980
C 13.445328960 12.147300026 2.904124980
C 23.431155930 16.289352499 2.904124980
C -3.797205930 17.717646455 2.904124980
C 6.188621040 21.859698927 2.904124980
C -2.391415110 28.436652525 2.904124980
H 17.891142428 5.797887259 2.278305098
H 1.742807572 28.209111695 2.278305098
H 25.301211132 12.595240216 2.278305098
H 15.709496440 15.613871478 2.278305098
H 3.924453560 18.393127475 2.278305098
H -5.667261132 21.411758737 2.278305098
H -1.742807572 28.209111695 14.288294902
H 5.667261132 21.411758737 14.288294902
H -3.924453560 18.393127475 14.288294902
H 23.558403560 15.613871478 14.288294902
H 13.966688868 12.595240216 14.288294902
H 21.376757572 5.797887259 14.288294902
H 1.742807572 28.209111695 14.288294902
H 17.891142428 5.797887259 14.288294902
H -5.667261132 21.411758737 14.288294902
H 3.924453560 18.393127475 14.288294902
H 15.709496440 15.613871478 14.288294902
H 25.301211132 12.595240216 14.288294902
H 21.376757572 5.797887259 2.278305098
H 13.966688868 12.595240216 2.278305098
H 23.558403560 15.613871478 2.278305098
H -3.924453560 18.393127475 2.278305098
H 5.667261132 21.411758737 2.278305098
H -1.742807572 28.209111695 2.278305098
C 15.728953684 6.253547038 7.609039380
C 3.904996316 27.753451916 7.609039380
C 25.987692560 10.494899947 7.609039380
C 17.185203756 17.258551969 7.609039380
C 2.448746244 16.748446984 7.609039380
C -6.353742559 23.512099006 7.609039380
C -3.904996315 27.753451916 8.957560620
C 6.353742560 23.512099006 8.957560620
C -2.448746244 16.748446984 8.957560620
C 22.082696244 17.258551969 8.957560620
C 13.280207441 10.494899947 8.957560620
C 23.538946316 6.253547038 8.957560620
C 3.904996316 27.753451916 8.957560620
C 15.728953684 6.253547038 8.957560620
C -6.353742559 23.512099006 8.957560620
C 2.448746244 16.748446984 8.957560620
C 17.185203756 17.258551969 8.957560620
C 25.987692560 10.494899947 8.957560620
C 23.538946316 6.253547038 7.609039380
C 13.280207441 10.494899947 7.609039380
C 22.082696244 17.258551969 7.609039380
C -2.448746244 16.748446984 7.609039380
C 6.353742560 23.512099006 7.609039380
C -3.904996315 27.753451916 7.609039380
H 16.157071964 5.560314364 7.158212494
H 3.476878036 28.446684589 7.158212494
H 26.373990526 11.212277590 7.158212494
H 16.370787510 17.234407000 7.158212494
H 3.263162490 16.772591954 7.158212494
H -6.740040526 22.794721363 7.158212494
H -3.476878036 28.446684589 9.408387506
H 6.740040526 22.794721363 9.408387506
H -3.263162490 16.772591954 9.408387506
H 22.897112490 17.234407000 9.408387506
H 12.893909474 11.212277590 9.408387506
H 23.110828036 5.560314364 9.408387506
H 3.476878036 28.446684589 9.408387506
H 16.157071964 5.560314364 9.408387506
H -6.740040526 22.794721363 9.408387506
H 3.263162490 16.772591954 9.408387506
H 16.370787510 17.234407000 9.408387506
H 26.373990526 11.212277590 9.408387506
H 23.110828036 5.560314364 7.158212494
H 12.893909474 11.212277590 7.158212494
H 22.897112490 17.234407000 7.158212494
H -3.263162490 16.772591954 7.158212494
H 6.740040526 22.794721363 7.158212494
H -3.476878036 28.446684589 7.158212494
C 15.099685587 7.282258756 6.850289100
C 4.534264413 26.724740197 6.850289100
C 25.411436127 9.435581930 6.850289100
C 18.390728286 17.289158268 6.850289100
C 1.243221714 16.717840685 6.850289100
C -5.777486127 24.571417024 6.850289100
C -4.534264413 26.724740197 9.716310900
C 5.777486127 24.571417024 9.716310900
C -1.243221714 16.717840685 9.716310900
C 20.877171714 17.289158268 9.716310900
C 13.856463873 9.435581930 9.716310900
C 24.168214413 7.282258756 9.716310900
C 4.534264413 26.724740197 9.716310900
C 15.099685587 7.282258756 9.716310900
C -5.777486127 24.571417024 9.716310900
C 1.243221714 16.717840685 9.716310900
C 18.390728286 17.289158268 9.716310900
C 25.411436127 9.435581930 9.716310900
C 24.168214413 7.282258756 6.850289100
C 13.856463873 9.435581930 6.850289100
C 20.877171714 17.289158268 6.850289100
C -1.243221714 16.717840685 6.850289100
C 5.777486127 24.571417024 6.850289100
C -4.534264413 26.724740197 6.850289100
C 14.463349267 8.350418593 7.556026260
C 5.170600733 25.656580360 7.556026260
C 24.804550732 8.350418593 7.556026260
C 19.633950000 17.306161767 7.556026260
C 0.000000000 16.700837186 7.556026260
C -5.170600732 25.656580360 7.556026260
C -5.170600732 25.656580360 9.010573740
C 5.170600733 25.656580360 9.010573740
C 0.000000000 16.700837186 9.010573740
C 19.633950000 17.306161767 9.010573740
C 14.463349267 8.350418593 9.010573740
C 24.804550733 8.350418593 9.010573740
C 15.127565796 7.342791214 5.453724720
C 4.506384204 26.664207739 5.453724720
C 25.345073376 9.429460670 5.453724720
C 18.429210828 17.234747070 5.453724720
C 1.204739172 16.772251884 5.453724720
C -5.711123376 24.577538284 5.453724720
C -4.506384204 26.664207739 11.112875280
C 5.711123376 24.577538284 11.112875280
C -1.204739172 16.772251884 11.112875280
C 20.838689172 17.234747070 11.112875280
C 13.922826624 9.429460670 11.112875280
C 24.140334204 7.342791214 11.112875280
C 4.506384204 26.664207739 11.112875280
C 15.127565796 7.342791214 11.112875280
C -5.711123376 24.577538284 11.112875280
C 1.204739172 16.772251884 11.112875280
C 18.429210828 17.234747070 11.112875280
C 25.345073376 9.429460670 11.112875280
C 24.140334204 7.342791214 5.453724720
C 13.922826624 9.429460670 5.453724720
C 20.838689172 17.234747070 5.453724720
C -1.204739172 16.772251884 5.453724720
C 5.711123376 24.577538284 5.453724720
C -4.506384204 26.664207739 5.453724720
C 14.530890056 8.389866712 4.801000680
C 5.103059945 25.617132242 4.801000680
C 24.736617266 8.389186572 4.801000680
C 19.634342679 17.227945670 4.801000680
C -0.000392679 16.779053284 4.801000680
C -5.102667265 25.617812381 4.801000680
C -5.103059944 25.617132242 11.765599320
C 5.102667266 25.617812381 11.765599320
C 0.000392679 16.779053284 11.765599320
C 19.633557321 17.227945670 11.765599320
C 14.531282735 8.389186572 11.765599320
C 24.737009944 8.389866712 11.765599320
H 14.540216182 8.394797727 3.871167122
H 5.093733818 25.612201227 3.871167122
H 24.727683818 8.394797727 3.871167122
H 19.633950000 17.217403500 3.871167122
H 0.000000000 16.789595453 3.871167122
H -5.093733818 25.612201227 3.871167122
H -5.093733818 25.612201227 12.695432878
H 5.093733818 25.612201227 12.695432878
H 0.000000000 16.789595453 12.695432878
H 19.633950000 17.217403500 12.695432878
H 14.540216182 8.394797727 12.695432878
H 24.727683818 8.394797727 12.695432878
O 17.163999090 2.015254758 2.455170120
O 2.469950910 31.991744195 2.455170120
O 28.940638639 13.856831863 2.455170120
O 12.797212271 18.134912332 2.455170120
O 6.836737730 15.872086621 2.455170120
O -9.306688639 20.150167090 2.455170120
O -2.469950910 31.991744195 14.111429880
O 9.306688640 20.150167090 14.111429880
O -6.836737729 15.872086621 14.111429880
O 26.470687729 18.134912332 14.111429880
O 10.327261361 13.856831863 14.111429880
O 22.103900910 2.015254758 14.111429880
O 2.469950910 31.991744195 14.111429880
O 17.163999090 2.015254758 14.111429880
O -9.306688639 20.150167090 14.111429880
O 6.836737730 15.872086621 14.111429880
O 12.797212271 18.134912332 14.111429880
O 28.940638639 13.856831863 14.111429880
O 22.103900910 2.015254758 2.455170120
O 10.327261361 13.856831863 2.455170120
O 26.470687729 18.134912332 2.455170120
O -6.836737729 15.872086621 2.455170120
O 9.306688640 20.150167090 2.455170120
O -2.469950910 31.991744195 2.455170120
O 18.309640072 3.577876360 1.341397602
O 1.324309928 30.429122593 1.341397602
O 27.014548145 14.067675257 1.341397602
O 13.577661783 16.361447336 1.341397602
O 6.056288217 17.645551617 1.341397602
O -7.380598144 19.939323696 1.341397602
O -1.324309927 30.429122593 15.225202398
O 7.380598145 19.939323696 15.225202398
O -6.056288217 17.645551617 15.225202398
O 25.690238217 16.361447336 15.225202398
O 12.253351856 14.067675257 15.225202398
O 20.958259927 3.577876360 15.225202398
O 1.324309928 30.429122593 15.225202398
O 18.309640072 3.577876360 15.225202398
O -7.380598144 19.939323696 15.225202398
O 6.056288217 17.645551617 15.225202398
O 13.577661783 16.361447336 15.225202398
O 27.014548145 14.067675257 15.225202398
O 20.958259927 3.577876360 1.341397602
O 12.253351856 14.067675257 1.341397602
O 25.690238217 16.361447336 1.341397602
O -6.056288217 17.645551617 1.341397602
O 7.380598145 19.939323696 1.341397602
O -1.324309927 30.429122593 1.341397602
O 17.809956045 1.224932102 0.000000000
O 1.823993955 32.782066851 0.000000000
O 29.302099659 14.811408324 0.000000000
O 11.789794296 17.970658527 0.000000000
O 7.844155704 16.036340426 0.000000000
O -9.668149659 19.195590629 0.000000000
O -1.823993955 32.782066851 0.000000000
O 9.668149659 19.195590629 0.000000000
O -7.844155704 16.036340426 0.000000000
O 27.478105704 17.970658527 0.000000000
O 9.965800341 14.811408324 0.000000000
O 21.457943955 1.224932102 0.000000000
O 19.634146339 1.189904893 1.779252840
O -0.000196339 32.817094060 1.779252840
O 28.420338965 16.408717065 1.779252840
O 10.847364696 16.408376995 1.779252840
O 8.786585304 17.598621958 1.779252840
O -8.786388964 17.598281888 1.779252840
O 0.000196340 32.817094060 14.787347160
O 8.786388965 17.598281888 14.787347160
O -8.786585304 17.598621958 14.787347160
O 28.420535304 16.408376995 14.787347160
O 10.847561036 16.408717065 14.787347160
O 19.633753661 1.189904893 14.787347160
O 15.673782285 0.000000000 1.613586840
O 23.594117715 0.000000000 1.613586840
O -7.836891142 13.573893632 1.613586840
O 11.797058858 20.433105321 1.613586840
O 7.836891143 13.573893632 1.613586840
O -11.797058857 20.433105321 1.613586840
O 15.673782285 0.000000000 14.953013160
O 11.797058858 20.433105321 14.953013160
O -7.836891142 13.573893632 14.953013160
O -11.797058857 20.433105321 14.953013160
O 7.836891143 13.573893632 14.953013160
O 23.594117715 0.000000000 14.953013160
O 18.003154113 0.000000000 3.952790760
O 21.264745887 0.000000000 3.952790760
O -9.001577056 15.591188810 3.952790760
O 10.632372944 18.415810143 3.952790760
O 9.001577057 15.591188810 3.952790760
O -10.632372943 18.415810143 3.952790760
O 18.003154113 0.000000000 12.613809240
O 10.632372944 18.415810143 12.613809240
O -9.001577056 15.591188810 12.613809240
O -10.632372943 18.415810143 12.613809240
O 9.001577057 15.591188810 12.613809240
O 21.264745887 0.000000000 12.613809240
Zr 19.633950000 2.447823785 0.000000000
Zr 0.000000000 31.559175169 0.000000000
Zr 27.331047418 15.779587584 0.000000000
Zr 11.936852582 15.779587584 0.000000000
Zr 7.697097419 18.227411369 0.000000000
Zr -7.697097418 18.227411369 0.000000000
Zr 17.865716463 0.000000000 1.767821886
Zr 21.402183537 0.000000000 1.767821886
Zr -8.932858231 15.472164314 1.767821886
Zr 10.701091769 18.534834639 1.767821886
Zr 8.932858232 15.472164314 1.767821886
Zr -10.701091768 18.534834639 1.767821886
Zr 17.865716463 0.000000000 14.798778114
Zr 10.701091769 18.534834639 14.798778114
Zr -8.932858231 15.472164314 14.798778114
Zr -10.701091768 18.534834639 14.798778114
Zr 8.932858232 15.472164314 14.798778114
Zr 21.402183537 0.000000000 14.798778114
